1
9
.tran {1/2000/pwm_freq} {4.5/pwm_freq}
3
2
R7
I
1
/BASES
V
1
/GATE
V
